<?xml version="1.0" encoding="UTF-8"?>

<!-- generated on 2024-09-10 15:23:36 by Eclipse SUMO netconvert Version 1.20.0
<configuration xmlns:xsi="http://www.w3.org/2001/XMLSchema-instance" xsi:noNamespaceSchemaLocation="http://sumo.dlr.de/xsd/netconvertConfiguration.xsd">

    <input>
        <osm-files value="C:\Users\guipa\OneDrive\Documentos\Modelagem_e_simulacao\Sumo\map.osm"/>
    </input>

    <output>
        <output-file value="C:\Users\guipa\OneDrive\Documentos\Modelagem_e_simulacao\Sumo\map.net.xml"/>
    </output>

    <projection>
        <proj.utm value="true"/>
    </projection>

</configuration>
-->

<net version="1.20" junctionCornerDetail="5" limitTurnSpeed="5.50" xmlns:xsi="http://www.w3.org/2001/XMLSchema-instance" xsi:noNamespaceSchemaLocation="http://sumo.dlr.de/xsd/net_file.xsd">

    <location netOffset="-227597.12,3287409.40" convBoundary="0.00,0.00,700.76,732.78" origBoundary="-53.814954,-29.686954,-53.807693,-29.680387" projParameter="+proj=utm +zone=22 +ellps=WGS84 +datum=WGS84 +units=m +no_defs"/>

    <type id="highway.footway" priority="1" numLanes="1" speed="2.78" allow="pedestrian" oneway="1" width="2.00"/>
    <type id="highway.pedestrian" priority="1" numLanes="1" speed="2.78" allow="pedestrian" oneway="1" width="2.00"/>
    <type id="highway.residential" priority="3" numLanes="1" speed="13.89" disallow="tram rail_urban rail rail_electric rail_fast ship container cable_car subway aircraft wheelchair scooter drone" oneway="0"/>
    <type id="highway.service" priority="1" numLanes="1" speed="5.56" allow="pedestrian delivery bicycle" oneway="0"/>
    <type id="highway.steps" priority="1" numLanes="1" speed="1.39" allow="pedestrian" oneway="1" width="2.00"/>
    <type id="highway.tertiary" priority="10" numLanes="1" speed="22.22" disallow="tram rail_urban rail rail_electric rail_fast ship container cable_car subway aircraft wheelchair scooter drone" oneway="0"/>

    <edge id=":10693954719_0" function="internal">
        <lane id=":10693954719_0_0" index="0" disallow="tram rail_urban rail rail_electric rail_fast ship container cable_car subway aircraft wheelchair scooter drone" speed="22.22" length="5.00" shape="274.26,187.48 269.43,186.19"/>
        <lane id=":10693954719_0_1" index="1" disallow="tram rail_urban rail rail_electric rail_fast ship container cable_car subway aircraft wheelchair scooter drone" speed="22.22" length="5.00" shape="275.09,184.39 270.26,183.10"/>
    </edge>
    <edge id=":10693954732_0" function="internal">
        <lane id=":10693954732_0_0" index="0" disallow="tram rail_urban rail rail_electric rail_fast ship container cable_car subway aircraft wheelchair scooter drone" speed="22.22" length="5.00" shape="229.91,175.62 225.07,174.32"/>
        <lane id=":10693954732_0_1" index="1" disallow="tram rail_urban rail rail_electric rail_fast ship container cable_car subway aircraft wheelchair scooter drone" speed="22.22" length="5.00" shape="230.73,172.53 225.90,171.23"/>
    </edge>
    <edge id=":10718046327_0" function="internal">
        <lane id=":10718046327_0_0" index="0" disallow="tram rail_urban rail rail_electric rail_fast ship container cable_car subway aircraft wheelchair scooter drone" speed="22.22" length="5.05" shape="547.56,403.16 552.49,404.17"/>
        <lane id=":10718046327_0_1" index="1" disallow="tram rail_urban rail rail_electric rail_fast ship container cable_car subway aircraft wheelchair scooter drone" speed="22.22" length="5.05" shape="546.89,406.29 551.87,407.30"/>
    </edge>
    <edge id=":11293201598_0" function="internal">
        <lane id=":11293201598_0_0" index="0" disallow="tram rail_urban rail rail_electric rail_fast ship container cable_car subway aircraft wheelchair scooter drone" speed="13.89" length="0.30" shape="427.10,509.09 427.02,509.38"/>
    </edge>
    <edge id=":2036500638_0" function="internal">
        <lane id=":2036500638_0_0" index="0" disallow="tram rail_urban rail rail_electric rail_fast ship container cable_car subway aircraft wheelchair scooter drone" speed="6.79" length="8.55" shape="352.18,481.35 349.98,481.07 348.08,481.55 346.49,482.78 345.20,484.77"/>
    </edge>
    <edge id=":2036500638_1" function="internal">
        <lane id=":2036500638_1_0" index="0" disallow="tram rail_urban rail rail_electric rail_fast ship container cable_car subway aircraft wheelchair scooter drone" speed="13.89" length="10.11" shape="352.18,481.35 342.44,478.62"/>
    </edge>
    <edge id=":2036500638_2" function="internal">
        <lane id=":2036500638_2_0" index="0" disallow="tram rail_urban rail rail_electric rail_fast ship container cable_car subway aircraft wheelchair scooter drone" speed="13.89" length="10.23" shape="348.63,475.17 347.92,478.09 347.30,480.11 346.49,482.05 345.20,484.77"/>
    </edge>
    <edge id=":2036500638_3" function="internal">
        <lane id=":2036500638_3_0" index="0" disallow="tram rail_urban rail rail_electric rail_fast ship container cable_car subway aircraft wheelchair scooter drone" speed="6.12" length="3.45" shape="348.63,475.17 347.81,477.22 346.91,478.08"/>
    </edge>
    <edge id=":2036500638_4" function="internal">
        <lane id=":2036500638_4_0" index="0" disallow="tram rail_urban rail rail_electric rail_fast ship container cable_car subway aircraft wheelchair scooter drone" speed="6.12" length="4.71" shape="346.91,478.08 346.51,478.47 344.72,478.94 342.44,478.62"/>
    </edge>
    <edge id=":2036500639_0" function="internal">
        <lane id=":2036500639_0_0" index="0" disallow="tram rail_urban rail rail_electric rail_fast ship container cable_car subway aircraft wheelchair scooter drone" speed="22.22" length="11.10" shape="369.25,363.11 380.02,365.79"/>
        <lane id=":2036500639_0_1" index="1" disallow="tram rail_urban rail rail_electric rail_fast ship container cable_car subway aircraft wheelchair scooter drone" speed="22.22" length="11.10" shape="368.48,366.21 379.25,368.90"/>
    </edge>
    <edge id=":2036500639_2" function="internal">
        <lane id=":2036500639_2_0" index="0" disallow="tram rail_urban rail rail_electric rail_fast ship container cable_car subway aircraft wheelchair scooter drone" speed="6.52" length="8.98" shape="368.48,366.21 370.75,367.14 372.19,368.57 372.79,370.51 372.57,372.97"/>
    </edge>
    <edge id=":2036500658_0" function="internal">
        <lane id=":2036500658_0_0" index="0" disallow="tram rail_urban rail rail_electric rail_fast ship container cable_car subway aircraft wheelchair scooter drone" speed="8.42" length="11.28" shape="148.19,433.97 147.52,430.57 146.35,427.95 144.67,426.10 142.47,425.04"/>
    </edge>
    <edge id=":2036500658_1" function="internal">
        <lane id=":2036500658_1_0" index="0" disallow="tram rail_urban rail rail_electric rail_fast ship container cable_car subway aircraft wheelchair scooter drone" speed="3.65" length="4.67" shape="148.19,433.97 148.85,432.69 149.61,432.21 150.45,432.52 151.37,433.63"/>
    </edge>
    <edge id=":2036500658_2" function="internal">
        <lane id=":2036500658_2_0" index="0" disallow="tram rail_urban rail rail_electric rail_fast ship container cable_car subway aircraft wheelchair scooter drone" speed="5.85" length="9.12" shape="156.81,429.00 154.18,428.66 152.39,429.31 151.45,430.97 151.37,433.63"/>
    </edge>
    <edge id=":2036500658_3" function="internal">
        <lane id=":2036500658_3_0" index="0" disallow="tram rail_urban rail rail_electric rail_fast ship container cable_car subway aircraft wheelchair scooter drone" speed="13.89" length="14.88" shape="156.81,429.00 142.47,425.04"/>
        <lane id=":2036500658_3_1" index="1" disallow="tram rail_urban rail rail_electric rail_fast ship container cable_car subway aircraft wheelchair scooter drone" speed="13.89" length="14.88" shape="157.67,425.92 143.32,421.95"/>
    </edge>
    <edge id=":2036500677_0" function="internal">
        <lane id=":2036500677_0_0" index="0" disallow="tram rail_urban rail rail_electric rail_fast ship container cable_car subway aircraft wheelchair scooter drone" speed="6.65" length="9.54" shape="96.67,290.79 99.39,291.19 101.54,290.70 103.12,289.33 104.14,287.06"/>
        <lane id=":2036500677_0_1" index="1" disallow="tram rail_urban rail rail_electric rail_fast ship container cable_car subway aircraft wheelchair scooter drone" speed="8.12" length="14.73" shape="95.80,293.87 99.94,294.46 103.22,293.66 105.65,291.47 107.23,287.90"/>
    </edge>
    <edge id=":2036500677_2" function="internal">
        <lane id=":2036500677_2_0" index="0" disallow="tram rail_urban rail rail_electric rail_fast ship container cable_car subway aircraft wheelchair scooter drone" speed="11.11" length="15.25" shape="95.80,293.87 100.28,294.61 103.47,294.36 106.66,294.12 111.13,294.85"/>
        <lane id=":2036500677_2_1" index="1" disallow="tram rail_urban rail rail_electric rail_fast ship container cable_car subway aircraft wheelchair scooter drone" speed="11.11" length="15.25" shape="95.80,293.87 110.27,297.93"/>
    </edge>
    <edge id=":2036500677_4" function="internal">
        <lane id=":2036500677_4_0" index="0" disallow="tram rail_urban rail rail_electric rail_fast ship container cable_car subway aircraft wheelchair scooter drone" speed="22.22" length="14.08" shape="99.32,299.91 101.10,296.24 102.20,293.66 103.06,291.00 104.14,287.06"/>
        <lane id=":2036500677_4_1" index="1" disallow="tram rail_urban rail rail_electric rail_fast ship container cable_car subway aircraft wheelchair scooter drone" speed="22.22" length="14.08" shape="102.19,301.33 104.05,297.49 105.20,294.80 106.10,292.01 107.23,287.90"/>
    </edge>
    <edge id=":2036500677_6" function="internal">
        <lane id=":2036500677_6_0" index="0" disallow="tram rail_urban rail rail_electric rail_fast ship container cable_car subway aircraft wheelchair scooter drone" speed="7.18" length="9.63" shape="102.19,301.33 103.61,299.25 105.44,297.99 107.65,297.55 110.27,297.93"/>
    </edge>
    <edge id=":2037075267_0" function="internal">
        <lane id=":2037075267_0_0" index="0" disallow="tram rail_urban rail rail_electric rail_fast ship container cable_car subway aircraft wheelchair scooter drone" speed="22.22" length="5.00" shape="517.60,396.80 522.53,397.81"/>
        <lane id=":2037075267_0_1" index="1" disallow="tram rail_urban rail rail_electric rail_fast ship container cable_car subway aircraft wheelchair scooter drone" speed="22.22" length="5.00" shape="517.00,399.94 521.86,400.94"/>
    </edge>
    <edge id=":2934332860_0" function="internal">
        <lane id=":2934332860_0_0" index="0" allow="pedestrian delivery bicycle" speed="3.65" length="4.67" shape="701.14,216.69 702.11,217.76 702.31,218.63 701.73,219.31 700.38,219.80"/>
    </edge>
    <edge id=":2934332863_0" function="internal">
        <lane id=":2934332863_0_0" index="0" allow="pedestrian delivery bicycle" speed="3.65" length="4.67" shape="640.54,205.16 639.57,204.10 639.37,203.22 639.95,202.54 641.30,202.05"/>
    </edge>
    <edge id=":3723584759_0" function="internal">
        <lane id=":3723584759_0_0" index="0" disallow="tram rail_urban rail rail_electric rail_fast ship container cable_car subway aircraft wheelchair scooter drone" speed="22.22" length="0.30" shape="674.01,306.71 674.09,306.42"/>
        <lane id=":3723584759_0_1" index="1" disallow="tram rail_urban rail rail_electric rail_fast ship container cable_car subway aircraft wheelchair scooter drone" speed="22.22" length="0.30" shape="677.10,307.55 677.18,307.27"/>
        <lane id=":3723584759_0_2" index="2" disallow="tram rail_urban rail rail_electric rail_fast ship container cable_car subway aircraft wheelchair scooter drone" speed="22.22" length="0.30" shape="680.18,308.40 680.26,308.11"/>
    </edge>
    <edge id=":3723594328_0" function="internal">
        <lane id=":3723594328_0_0" index="0" disallow="tram rail_urban rail rail_electric rail_fast ship container cable_car subway aircraft wheelchair scooter drone" speed="22.22" length="0.91" shape="638.73,435.32 638.49,436.21"/>
        <lane id=":3723594328_0_1" index="1" disallow="tram rail_urban rail rail_electric rail_fast ship container cable_car subway aircraft wheelchair scooter drone" speed="22.22" length="0.91" shape="641.81,436.17 641.57,437.05"/>
        <lane id=":3723594328_0_2" index="2" disallow="tram rail_urban rail rail_electric rail_fast ship container cable_car subway aircraft wheelchair scooter drone" speed="22.22" length="0.91" shape="644.90,437.02 644.66,437.90"/>
    </edge>
    <edge id=":3723594330_0" function="internal">
        <lane id=":3723594330_0_0" index="0" disallow="tram rail_urban rail rail_electric rail_fast ship container cable_car subway aircraft wheelchair scooter drone" speed="22.22" length="0.10" shape="663.73,431.67 663.73,431.67"/>
        <lane id=":3723594330_0_1" index="1" disallow="tram rail_urban rail rail_electric rail_fast ship container cable_car subway aircraft wheelchair scooter drone" speed="22.22" length="0.10" shape="662.90,434.76 662.90,434.76"/>
        <lane id=":3723594330_0_2" index="2" disallow="tram rail_urban rail rail_electric rail_fast ship container cable_car subway aircraft wheelchair scooter drone" speed="22.22" length="0.10" shape="662.07,437.85 662.07,437.85"/>
    </edge>
    <edge id=":3723594331_0" function="internal">
        <lane id=":3723594331_0_0" index="0" disallow="tram rail_urban rail rail_electric rail_fast ship container cable_car subway aircraft wheelchair scooter drone" speed="22.22" length="0.30" shape="633.40,425.18 633.69,425.26"/>
        <lane id=":3723594331_0_1" index="1" disallow="tram rail_urban rail rail_electric rail_fast ship container cable_car subway aircraft wheelchair scooter drone" speed="22.22" length="0.30" shape="632.57,428.27 632.86,428.35"/>
    </edge>
    <edge id=":3799617805_0" function="internal">
        <lane id=":3799617805_0_0" index="0" allow="pedestrian delivery bicycle" speed="3.65" length="4.67" shape="286.12,528.28 284.98,529.17 284.10,529.29 283.46,528.66 283.09,527.27"/>
    </edge>
    <edge id=":3799619815_0" function="internal">
        <lane id=":3799619815_0_0" index="0" allow="pedestrian delivery bicycle" speed="3.65" length="4.67" shape="194.39,391.65 193.46,390.55 193.29,389.67 193.90,389.01 195.28,388.58"/>
    </edge>
    <edge id=":3845893218_0" function="internal">
        <lane id=":3845893218_0_0" index="0" allow="pedestrian delivery bicycle" speed="5.15" length="5.14" shape="157.41,304.44 157.25,305.88 157.56,307.02 158.33,307.87 159.57,308.43"/>
    </edge>
    <edge id=":3845893218_1" function="internal">
        <lane id=":3845893218_1_0" index="0" allow="pedestrian delivery bicycle" speed="3.65" length="4.67" shape="157.41,304.44 156.35,305.41 155.47,305.61 154.79,305.03 154.30,303.68"/>
    </edge>
    <edge id=":3845893218_2" function="internal">
        <lane id=":3845893218_2_0" index="0" allow="pedestrian delivery bicycle" speed="5.00" length="5.04" shape="150.51,305.89 151.89,306.07 152.98,305.76 153.78,304.97 154.30,303.68"/>
    </edge>
    <edge id=":3845893218_3" function="internal">
        <lane id=":3845893218_3_0" index="0" disallow="tram rail_urban rail rail_electric rail_fast ship container cable_car subway aircraft wheelchair scooter drone" speed="11.11" length="9.40" shape="150.51,305.89 159.57,308.43"/>
        <lane id=":3845893218_3_1" index="1" disallow="tram rail_urban rail rail_electric rail_fast ship container cable_car subway aircraft wheelchair scooter drone" speed="11.11" length="9.40" shape="149.65,308.97 158.70,311.51"/>
    </edge>
    <edge id=":3845893464_0" function="internal">
        <lane id=":3845893464_0_0" index="0" allow="pedestrian delivery bicycle" speed="3.65" length="4.67" shape="264.47,244.86 263.39,245.82 262.51,246.01 261.84,245.42 261.37,244.05"/>
    </edge>
    <edge id=":3845893529_0" function="internal">
        <lane id=":3845893529_0_0" index="0" allow="pedestrian delivery bicycle" speed="3.65" length="4.67" shape="157.05,246.72 158.06,245.69 158.92,245.45 159.63,246.00 160.19,247.33"/>
    </edge>
    <edge id=":3845894077_0" function="internal">
        <lane id=":3845894077_0_0" index="0" allow="pedestrian delivery bicycle" speed="3.65" length="4.67" shape="228.28,86.03 229.37,85.09 230.25,84.93 230.91,85.53 231.36,86.90"/>
    </edge>
    <edge id=":3851294712_0" function="internal">
        <lane id=":3851294712_0_0" index="0" allow="pedestrian delivery bicycle" speed="3.65" length="4.67" shape="586.64,451.27 587.82,452.10 588.21,452.91 587.79,453.70 586.57,454.47"/>
    </edge>
    <edge id=":3851295066_0" function="internal">
        <lane id=":3851295066_0_0" index="0" allow="pedestrian delivery bicycle" speed="3.65" length="4.67" shape="556.30,338.93 555.34,337.85 555.15,336.98 555.74,336.30 557.10,335.83"/>
    </edge>
    <edge id=":3851295073_0" function="internal">
        <lane id=":3851295073_0_0" index="0" allow="pedestrian delivery bicycle" speed="3.65" length="4.67" shape="579.44,332.31 578.37,333.27 577.49,333.45 576.82,332.86 576.34,331.50"/>
    </edge>
    <edge id=":3851295083_0" function="internal">
        <lane id=":3851295083_0_0" index="0" allow="pedestrian delivery bicycle" speed="5.56" length="8.92" shape="581.87,323.52 579.49,332.11"/>
    </edge>
    <edge id=":3851295083_1" function="internal">
        <lane id=":3851295083_1_0" index="0" allow="pedestrian delivery bicycle" speed="5.56" length="10.11" shape="581.87,323.52 580.73,326.04 579.05,327.59 576.84,328.19 574.10,327.82"/>
    </edge>
    <edge id=":3851295083_2" function="internal">
        <lane id=":3851295083_2_0" index="0" allow="pedestrian delivery bicycle" speed="3.65" length="4.67" shape="581.87,323.52 580.77,324.45 579.89,324.60 579.23,324.00 578.80,322.62"/>
    </edge>
    <edge id=":3851295083_3" function="internal">
        <lane id=":3851295083_3_0" index="0" allow="pedestrian delivery bicycle" speed="5.05" length="4.99" shape="574.97,324.74 576.32,324.92 577.41,324.63 578.24,323.86 578.80,322.62"/>
    </edge>
    <edge id=":3851295083_4" function="internal">
        <lane id=":3851295083_4_0" index="0" allow="pedestrian delivery bicycle" speed="5.56" length="9.82" shape="574.97,324.74 577.50,325.84 579.10,327.43 579.76,329.52 579.49,332.11"/>
    </edge>
    <edge id=":3851295083_5" function="internal">
        <lane id=":3851295083_5_0" index="0" allow="pedestrian delivery bicycle" speed="3.65" length="4.67" shape="574.97,324.74 575.90,325.84 576.07,326.71 575.47,327.38 574.10,327.82"/>
    </edge>
    <edge id=":3851295083_6" function="internal">
        <lane id=":3851295083_6_0" index="0" allow="pedestrian delivery bicycle" speed="4.96" length="4.74" shape="576.39,331.31 576.51,330.10 576.16,329.11 575.36,328.35 574.10,327.82"/>
    </edge>
    <edge id=":3851295083_7" function="internal">
        <lane id=":3851295083_7_0" index="0" allow="pedestrian delivery bicycle" speed="5.56" length="9.02" shape="576.39,331.31 578.80,322.62"/>
    </edge>
    <edge id=":3851295083_8" function="internal">
        <lane id=":3851295083_8_0" index="0" allow="pedestrian delivery bicycle" speed="3.65" length="4.67" shape="576.39,331.31 577.47,330.35 578.35,330.16 579.02,330.75 579.49,332.11"/>
    </edge>
    <edge id=":3851295142_0" function="internal">
        <lane id=":3851295142_0_0" index="0" allow="pedestrian delivery bicycle" speed="3.65" length="4.67" shape="569.78,302.97 570.89,302.04 571.77,301.88 572.42,302.49 572.85,303.87"/>
    </edge>
    <edge id=":3851295219_0" function="internal">
        <lane id=":3851295219_0_0" index="0" allow="pedestrian delivery bicycle" speed="5.56" length="0.31" shape="591.60,290.37 591.51,290.67"/>
    </edge>
    <edge id=":3851295219_1" function="internal">
        <lane id=":3851295219_1_0" index="0" allow="pedestrian delivery bicycle" speed="5.56" length="0.29" shape="588.44,289.77 588.52,289.49"/>
    </edge>
    <edge id=":3851295650_0" function="internal">
        <lane id=":3851295650_0_0" index="0" allow="pedestrian delivery bicycle" speed="3.65" length="4.67" shape="563.07,161.52 564.02,162.60 564.19,163.48 563.60,164.15 562.23,164.61"/>
    </edge>
    <edge id=":3851295661_0" function="internal">
        <lane id=":3851295661_0_0" index="0" allow="pedestrian delivery bicycle" speed="6.09" length="7.74" shape="529.03,155.62 527.83,154.89 527.21,153.50 527.15,151.44 527.66,148.73"/>
    </edge>
    <edge id=":3851295661_1" function="internal">
        <lane id=":3851295661_1_0" index="0" allow="pedestrian delivery bicycle" speed="3.65" length="4.67" shape="529.03,155.62 528.08,154.53 527.91,153.66 528.50,152.99 529.87,152.53"/>
    </edge>
    <edge id=":3851295661_2" function="internal">
        <lane id=":3851295661_2_0" index="0" disallow="tram rail_urban rail rail_electric rail_fast ship container cable_car subway aircraft wheelchair scooter drone" speed="13.89" length="9.37" shape="522.14,156.95 524.57,147.92"/>
        <lane id=":3851295661_2_1" index="1" disallow="tram rail_urban rail rail_electric rail_fast ship container cable_car subway aircraft wheelchair scooter drone" speed="13.89" length="9.37" shape="525.23,157.79 527.66,148.73"/>
    </edge>
    <edge id=":3851295661_4" function="internal">
        <lane id=":3851295661_4_0" index="0" allow="pedestrian delivery bicycle" speed="6.09" length="7.75" shape="525.23,157.79 526.14,155.19 527.22,153.44 528.46,152.56 529.87,152.53"/>
    </edge>
    <edge id=":3995880153_0" function="internal">
        <lane id=":3995880153_0_0" index="0" disallow="tram rail_urban rail rail_electric rail_fast ship container cable_car subway aircraft wheelchair scooter drone" speed="13.89" length="9.40" shape="270.12,406.94 267.72,416.03"/>
    </edge>
    <edge id=":3995880153_1" function="internal">
        <lane id=":3995880153_1_0" index="0" allow="pedestrian delivery bicycle" speed="6.05" length="7.83" shape="270.12,406.94 269.22,409.57 268.13,411.32 266.86,412.18 265.40,412.17"/>
    </edge>
    <edge id=":3995880153_2" function="internal">
        <lane id=":3995880153_2_0" index="0" allow="pedestrian delivery bicycle" speed="6.15" length="7.80" shape="266.30,409.10 267.52,409.86 268.16,411.27 268.23,413.33 267.72,416.03"/>
    </edge>
    <edge id=":3995880153_3" function="internal">
        <lane id=":3995880153_3_0" index="0" allow="pedestrian delivery bicycle" speed="3.65" length="4.67" shape="266.30,409.10 267.23,410.20 267.39,411.08 266.78,411.74 265.40,412.17"/>
    </edge>
    <edge id=":3995883059_0" function="internal">
        <lane id=":3995883059_0_0" index="0" disallow="tram rail_urban rail rail_electric rail_fast ship container cable_car subway aircraft wheelchair scooter drone" speed="11.11" length="0.10" shape="281.47,341.40 281.43,341.40"/>
        <lane id=":3995883059_0_1" index="1" disallow="tram rail_urban rail rail_electric rail_fast ship container cable_car subway aircraft wheelchair scooter drone" speed="11.11" length="0.10" shape="280.69,344.50 280.76,344.52"/>
    </edge>
    <edge id=":3995883060_0" function="internal">
        <lane id=":3995883060_0_0" index="0" disallow="tram rail_urban rail rail_electric rail_fast ship container cable_car subway aircraft wheelchair scooter drone" speed="11.11" length="1.24" shape="287.86,339.69 288.16,338.50"/>
    </edge>
    <edge id=":4017965076_0" function="internal">
        <lane id=":4017965076_0_0" index="0" allow="pedestrian delivery bicycle" speed="5.10" length="5.07" shape="650.92,378.85 652.32,379.01 653.43,378.70 654.27,377.93 654.81,376.68"/>
    </edge>
    <edge id=":4017965076_1" function="internal">
        <lane id=":4017965076_1_0" index="0" allow="pedestrian delivery bicycle" speed="3.65" length="4.67" shape="650.92,378.85 651.88,379.93 652.07,380.80 651.49,381.48 650.13,381.96"/>
    </edge>
    <edge id=":4017965076_2" function="internal">
        <lane id=":4017965076_2_0" index="0" allow="pedestrian delivery bicycle" speed="4.18" length="3.16" shape="653.26,382.36 650.13,381.96"/>
    </edge>
    <edge id=":4017965076_3" function="internal">
        <lane id=":4017965076_3_0" index="0" disallow="tram rail_urban rail rail_electric rail_fast ship container cable_car subway aircraft wheelchair scooter drone" speed="22.22" length="5.88" shape="653.26,382.36 654.81,376.68"/>
        <lane id=":4017965076_3_1" index="1" disallow="tram rail_urban rail rail_electric rail_fast ship container cable_car subway aircraft wheelchair scooter drone" speed="22.22" length="5.88" shape="656.35,383.20 657.90,377.53"/>
        <lane id=":4017965076_3_2" index="2" disallow="tram rail_urban rail rail_electric rail_fast ship container cable_car subway aircraft wheelchair scooter drone" speed="22.22" length="5.88" shape="659.43,384.04 660.99,378.37"/>
    </edge>
    <edge id=":4017965079_0" function="internal">
        <lane id=":4017965079_0_0" index="0" allow="pedestrian delivery bicycle" speed="3.65" length="4.67" shape="611.14,374.74 610.17,373.67 609.98,372.80 610.56,372.12 611.92,371.64"/>
    </edge>
    <edge id=":4017965083_0" function="internal">
        <lane id=":4017965083_0_0" index="0" allow="pedestrian delivery bicycle" speed="3.65" length="4.67" shape="611.46,372.42 610.48,371.36 610.28,370.48 610.86,369.80 612.22,369.31"/>
    </edge>
    <edge id=":4017965087_0" function="internal">
        <lane id=":4017965087_0_0" index="0" allow="pedestrian delivery bicycle" speed="5.15" length="5.13" shape="660.47,343.78 661.91,343.93 663.05,343.62 663.89,342.84 664.44,341.60"/>
    </edge>
    <edge id=":4017965087_1" function="internal">
        <lane id=":4017965087_1_0" index="0" allow="pedestrian delivery bicycle" speed="3.65" length="4.67" shape="660.47,343.78 661.45,344.84 661.65,345.71 661.08,346.39 659.72,346.89"/>
    </edge>
    <edge id=":4017965087_2" function="internal">
        <lane id=":4017965087_2_0" index="0" allow="pedestrian delivery bicycle" speed="5.01" length="5.04" shape="661.96,350.67 662.13,349.29 661.82,348.20 661.01,347.40 659.72,346.89"/>
    </edge>
    <edge id=":4017965087_3" function="internal">
        <lane id=":4017965087_3_0" index="0" disallow="tram rail_urban rail rail_electric rail_fast ship container cable_car subway aircraft wheelchair scooter drone" speed="22.22" length="9.40" shape="661.96,350.67 664.44,341.60"/>
        <lane id=":4017965087_3_1" index="1" disallow="tram rail_urban rail rail_electric rail_fast ship container cable_car subway aircraft wheelchair scooter drone" speed="22.22" length="9.40" shape="665.04,351.52 667.53,342.45"/>
        <lane id=":4017965087_3_2" index="2" disallow="tram rail_urban rail rail_electric rail_fast ship container cable_car subway aircraft wheelchair scooter drone" speed="22.22" length="9.40" shape="668.13,352.36 670.62,343.29"/>
    </edge>
    <edge id=":4017965102_0" function="internal">
        <lane id=":4017965102_0_0" index="0" allow="pedestrian delivery bicycle" speed="3.65" length="4.67" shape="624.97,320.62 624.01,319.54 623.83,318.67 624.42,318.00 625.79,317.53"/>
    </edge>
    <edge id=":4343596408_0" function="internal">
        <lane id=":4343596408_0_0" index="0" allow="pedestrian delivery bicycle" speed="5.07" length="5.04" shape="664.94,327.89 666.33,328.06 667.43,327.75 668.25,326.97 668.80,325.72"/>
    </edge>
    <edge id=":4343596408_1" function="internal">
        <lane id=":4343596408_1_0" index="0" allow="pedestrian delivery bicycle" speed="3.65" length="4.67" shape="664.94,327.89 665.90,328.97 666.08,329.85 665.49,330.52 664.13,330.99"/>
    </edge>
    <edge id=":4343596408_2" function="internal">
        <lane id=":4343596408_2_0" index="0" allow="pedestrian delivery bicycle" speed="5.03" length="5.01" shape="666.31,334.79 666.49,333.42 666.18,332.34 665.39,331.52 664.13,330.99"/>
    </edge>
    <edge id=":4343596408_3" function="internal">
        <lane id=":4343596408_3_0" index="0" disallow="tram rail_urban rail rail_electric rail_fast ship container cable_car subway aircraft wheelchair scooter drone" speed="22.22" length="9.40" shape="666.31,334.79 668.80,325.72"/>
        <lane id=":4343596408_3_1" index="1" disallow="tram rail_urban rail rail_electric rail_fast ship container cable_car subway aircraft wheelchair scooter drone" speed="22.22" length="9.40" shape="669.40,335.63 671.89,326.57"/>
        <lane id=":4343596408_3_2" index="2" disallow="tram rail_urban rail rail_electric rail_fast ship container cable_car subway aircraft wheelchair scooter drone" speed="22.22" length="9.40" shape="672.49,336.48 674.97,327.42"/>
    </edge>
    <edge id=":5221756936_0" function="internal">
        <lane id=":5221756936_0_0" index="0" disallow="tram rail_urban rail rail_electric rail_fast ship container cable_car subway aircraft wheelchair scooter drone" speed="13.89" length="0.58" shape="496.12,251.73 495.97,252.28"/>
        <lane id=":5221756936_0_1" index="1" disallow="tram rail_urban rail rail_electric rail_fast ship container cable_car subway aircraft wheelchair scooter drone" speed="13.89" length="0.58" shape="499.21,252.58 499.06,253.13"/>
    </edge>
    <edge id=":5221756937_0" function="internal">
        <lane id=":5221756937_0_0" index="0" disallow="tram rail_urban rail rail_electric rail_fast ship container cable_car subway aircraft wheelchair scooter drone" speed="22.22" length="0.70" shape="504.43,249.13 505.14,249.32"/>
        <lane id=":5221756937_0_1" index="1" disallow="tram rail_urban rail rail_electric rail_fast ship container cable_car subway aircraft wheelchair scooter drone" speed="22.22" length="0.70" shape="505.32,246.05 505.97,246.22"/>
    </edge>
    <edge id=":5221756938_0" function="internal">
        <lane id=":5221756938_0_0" index="0" disallow="tram rail_urban rail rail_electric rail_fast ship container cable_car subway aircraft wheelchair scooter drone" speed="13.89" length="1.09" shape="457.66,391.81 457.38,392.86"/>