<?xml version="1.0" encoding="UTF-8"?>

<!-- generated on 2024-10-22 10:45:48.598774 by osmWebWizard.py v1_20_0+0002-343658e7c64
<configuration>
    <net-file value="C:\Users\Lynkrd\Sumo\2024-10-22-10-45-22\osm.net.xml.gz"/>
    <output-trip-file value="C:\Users\Lynkrd\Sumo\2024-10-22-10-45-22\osm.passenger.trips.xml"/>
    <route-file value="C:\Users\Lynkrd\Sumo\2024-10-22-10-45-22\osm.passenger.rou.xml"/>
    <prefix value="veh"/>
    <trip-attributes value="departLane=&quot;best&quot;"/>
    <fringe-start-attributes value="departSpeed=&quot;max&quot;"/>
    <vehicle-class value="passenger"/>
    <lanes value="True"/>
    <fringe-factor value="200"/>
    <allow-fringe.min-length value="1000.0"/>
    <via-edge-types value="highway.motorway,highway.motorway_link,highway.trunk_link,highway.primary_link,highway.secondary_link,highway.tertiary_link"/>
    <min-distance value="300.0"/>
    <min-distance.fringe value="10.0"/>
    <remove-loops value="True"/>
    <validate value="True"/>
    <insertion-density value="12.0"/>
</configuration>
-->

<!-- generated on 2024-10-22 10:45:46 by Eclipse SUMO duarouter Version 1.20.0
<configuration xmlns:xsi="http://www.w3.org/2001/XMLSchema-instance" xsi:noNamespaceSchemaLocation="http://sumo.dlr.de/xsd/duarouterConfiguration.xsd">

    <input>
        <net-file value="C:\Users\Lynkrd\Sumo\2024-10-22-10-45-22\osm.net.xml.gz"/>
        <route-files value="C:\Users\Lynkrd\Sumo\2024-10-22-10-45-22\osm.passenger.trips.xml"/>
    </input>

    <output>
        <output-file value="C:\Users\Lynkrd\Sumo\2024-10-22-10-45-22\osm.passenger.trips.xml.tmp"/>
        <alternatives-output value="NUL"/>
        <write-trips value="true"/>
    </output>

    <processing>
        <remove-loops value="true"/>
    </processing>

    <time>
        <begin value="0.0"/>
        <end value="3600.0"/>
    </time>

    <report>
        <no-warnings value="true"/>
        <ignore-errors value="true"/>
        <no-step-log value="true"/>
    </report>

</configuration>
-->

<routes xmlns:xsi="http://www.w3.org/2001/XMLSchema-instance" xsi:noNamespaceSchemaLocation="http://sumo.dlr.de/xsd/routes_file.xsd">
    <vType id="veh_passenger" vClass="passenger"/>
    <trip id="veh0" type="veh_passenger" depart="0.00" departLane="best" departSpeed="max" from="196746076" to="-184515332#0"/>
    <trip id="veh1" type="veh_passenger" depart="0.82" departLane="best" departSpeed="max" from="-344330263#4" to="-199131297"/>
    <trip id="veh2" type="veh_passenger" depart="1.64" departLane="best" departSpeed="max" from="256533931" to="240164170#2"/>
    <trip id="veh3" type="veh_passenger" depart="2.47" departLane="best" departSpeed="max" from="429888406" to="-193032272#0"/>
    <trip id="veh4" type="veh_passenger" depart="3.29" departLane="best" departSpeed="max" from="-954079475" to="-184515850#0"/>
    <trip id="veh5" type="veh_passenger" depart="4.11" departLane="best" departSpeed="max" from="-240164170#2" to="193138280#2"/>
    <trip id="veh6" type="veh_passenger" depart="4.93" departLane="best" departSpeed="max" from="-193032296#1" to="197203390#1"/>
    <trip id="veh7" type="veh_passenger" depart="5.75" departLane="best" departSpeed="max" from="197203400" to="194491996"/>
    <trip id="veh8" type="veh_passenger" depart="6.57" departLane="best" departSpeed="max" from="-240733801" to="199341680#4"/>
    <trip id="veh9" type="veh_passenger" depart="7.40" departLane="best" departSpeed="max" from="346678754" to="-1161723917#0"/>
    <trip id="veh10" type="veh_passenger" depart="8.22" departLane="best" departSpeed="max" from="344332004" to="256890164"/>
    <trip id="veh11" type="veh_passenger" depart="9.04" departLane="best" departSpeed="max" from="-390526209" to="-193133931"/>
    <trip id="veh12" type="veh_passenger" depart="9.86" departLane="best" departSpeed="max" from="548155991" to="-361950929#0"/>
    <trip id="veh13" type="veh_passenger" depart="10.68" departLane="best" departSpeed="max" from="-193809812" to="-193032305"/>
    <trip id="veh14" type="veh_passenger" depart="11.50" departLane="best" departSpeed="max" from="383441686" to="199880987"/>
    <trip id="veh15" type="veh_passenger" depart="12.33" departLane="best" departSpeed="max" from="344332004" to="342138970#1"/>
    <trip id="veh16" type="veh_passenger" depart="13.15" departLane="best" departSpeed="max" from="193032297" to="954079475"/>
    <trip id="veh17" type="veh_passenger" depart="13.97" departLane="best" departSpeed="max" from="-470876994#1" to="197203407#2"/>
    <trip id="veh18" type="veh_passenger" depart="14.79" departLane="best" from="360935211#0" to="200091720#5"/>
    <trip id="veh20" type="veh_passenger" depart="16.43" departLane="best" from="199421037#2" to="-191712633"/>
    <trip id="veh21" type="veh_passenger" depart="17.26" departLane="best" departSpeed="max" from="-240733802" to="-295166565"/>
    <trip id="veh22" type="veh_passenger" depart="18.08" departLane="best" departSpeed="max" from="-193448359" to="-199131314#0"/>
    <trip id="veh23" type="veh_passenger" depart="18.90" departLane="best" departSpeed="max" from="-194491996" to="-259692596#0"/>
    <trip id="veh24" type="veh_passenger" depart="19.72" departLane="best" departSpeed="max" from="194356985#0" to="-387154801"/>
    <trip id="veh25" type="veh_passenger" depart="20.54" departLane="best" departSpeed="max" from="-457961116" to="-197203405#0"/>
    <trip id="veh26" type="veh_passenger" depart="21.37" departLane="best" departSpeed="max" from="-344153341" to="556516580"/>
    <trip id="veh28" type="veh_passenger" depart="23.01" departLane="best" departSpeed="max" from="-200091721#1" to="342138970#1"/>
    <trip id="veh29" type="veh_passenger" depart="23.83" departLane="best" departSpeed="max" from="-200018526#1" to="-429888406"/>
    <trip id="veh30" type="veh_passenger" depart="24.65" departLane="best" departSpeed="max" from="954079476#0" to="200672746"/>
    <trip id="veh31" type="veh_passenger" depart="25.47" departLane="best" departSpeed="max" from="193032310" to="240733802"/>
    <trip id="veh32" type="veh_passenger" depart="26.30" departLane="best" departSpeed="max" from="372786655" to="360924351#1"/>
    <trip id="veh33" type="veh_passenger" depart="27.12" departLane="best" departSpeed="max" from="-252988662" to="-184515850#0"/>
    <trip id="veh34" type="veh_passenger" depart="27.94" departLane="best" departSpeed="max" from="-377031473#1" to="-256533931"/>
    <trip id="veh35" type="veh_passenger" depart="28.76" departLane="best" departSpeed="max" from="-240164150" to="589683551#1"/>
    <trip id="veh36" type="veh_passenger" depart="29.58" departLane="best" departSpeed="max" from="392145534#0" to="-343333447"/>
    <trip id="veh37" type="veh_passenger" depart="30.40" departLane="best" departSpeed="max" from="197203405#0" to="-525453702#0"/>
    <trip id="veh38" type="veh_passenger" depart="31.23" departLane="best" departSpeed="max" from="465655140" to="193032317#6"/>
    <trip id="veh39" type="veh_passenger" depart="32.05" departLane="best" from="-343333449#8" to="-199341717"/>
    <trip id="veh40" type="veh_passenger" depart="32.87" departLane="best" departSpeed="max" from="193032311" to="-200091723#0"/>
    <trip id="veh41" type="veh_passenger" depart="33.69" departLane="best" departSpeed="max" from="193131671#0" to="512390459"/>
    <trip id="veh42" type="veh_passenger" depart="34.51" departLane="best" departSpeed="max" from="-541610490" to="-197203426#0"/>
    <trip id="veh43" type="veh_passenger" depart="35.33" departLane="best" departSpeed="max" from="987202795" to="193138288#4"/>
    <trip id="veh44" type="veh_passenger" depart="36.16" departLane="best" departSpeed="max" from="-193809812" to="-191712633"/>
    <trip id="veh45" type="veh_passenger" depart="36.98" departLane="best" departSpeed="max" from="-197203407#2" to="200091723#5"/>
    <trip id="veh46" type="veh_passenger" depart="37.80" departLane="best" departSpeed="max" from="329968562" to="-987202795"/>
    <trip id="veh47" type="veh_passenger" depart="38.62" departLane="best" departSpeed="max" from="-193138280#2" to="-457347019#0"/>
    <trip id="veh48" type="veh_passenger" depart="39.44" departLane="best" departSpeed="max" from="987202795" to="193809811"/>
    <trip id="veh49" type="veh_passenger" depart="40.27" departLane="best" departSpeed="max" from="699104406#0" to="455285855"/>
    <trip id="veh50" type="veh_passenger" depart="41.09" departLane="best" departSpeed="max" from="-184515614#2" to="305176890#0"/>
    <trip id="veh51" type="veh_passenger" depart="41.91" departLane="best" departSpeed="max" from="199131314#0" to="194338158#2"/>
    <trip id="veh52" type="veh_passenger" depart="42.73" departLane="best" departSpeed="max" from="-344153341" to="200672746"/>
    <trip id="veh53" type="veh_passenger" depart="43.55" departLane="best" departSpeed="max" from="-197203407#2" to="184515324#2"/>
    <trip id="veh55" type="veh_passenger" depart="45.20" departLane="best" departSpeed="max" from="392145534#0" to="-200093440#3"/>
    <trip id="veh56" type="veh_passenger" depart="46.02" departLane="best" departSpeed="max" from="193026201" to="-194338158#0"/>
    <trip id="veh57" type="veh_passenger" depart="46.84" departLane="best" departSpeed="max" from="462428404#0" to="465538935"/>
    <trip id="veh58" type="veh_passenger" depart="47.66" departLane="best" departSpeed="max" from="-366529377" to="200672746"/>
    <trip id="veh59" type="veh_passenger" depart="48.48" departLane="best" departSpeed="max" from="193138289#0" to="-193133931"/>
    <trip id="veh60" type="veh_passenger" depart="49.30" departLane="best" departSpeed="max" from="286663226#0" to="194338158#2"/>
    <trip id="veh61" type="veh_passenger" depart="50.13" departLane="best" departSpeed="max" from="303553306" to="193809811"/>
    <trip id="veh62" type="veh_passenger" depart="50.95" departLane="best" departSpeed="max" from="-1151656734" to="-346679281"/>
    <trip id="veh63" type="veh_passenger" depart="51.77" departLane="best" departSpeed="max" from="-193030333#2" to="548030803#1"/>
    <trip id="veh65" type="veh_passenger" depart="53.41" departLane="best" departSpeed="max" from="-372500448" to="-191712639#1"/>
    <trip id="veh66" type="veh_passenger" depart="54.24" departLane="best" departSpeed="max" from="395087230" to="659413623"/>
    <trip id="veh67" type="veh_passenger" depart="55.06" departLane="best" departSpeed="max" from="-193548434#3" to="193065676#4"/>
    <trip id="veh68" type="veh_passenger" depart="55.88" departLane="best" from="193302556#4" to="348002734"/>
    <trip id="veh69" type="veh_passenger" depart="56.70" departLane="best" departSpeed="max" from="295166565" to="-193065671"/>
    <trip id="veh70" type="veh_passenger" depart="57.52" departLane="best" departSpeed="max" from="191704965" to="197203403#1"/>
    <trip id="veh71" type="veh_passenger" depart="58.34" departLane="best" departSpeed="max" from="-344153341" to="468138759"/>
    <trip id="veh72" type="veh_passenger" depart="59.17" departLane="best" departSpeed="max" from="-961560662#3" to="-197203405#0"/>
    <trip id="veh73" type="veh_passenger" depart="59.99" departLane="best" departSpeed="max" from="193032305" to="342138970#1"/>
    <trip id="veh74" type="veh_passenger" depart="60.81" departLane="best" departSpeed="max" from="-231877657#4" to="-330750483#1"/>
    <trip id="veh75" type="veh_passenger" depart="61.63" departLane="best" departSpeed="max" from="987202795" to="205672783"/>
    <trip id="veh76" type="veh_passenger" depart="62.45" departLane="best" departSpeed="max" from="1161723917#0" to="193446576"/>
    <trip id="veh77" type="veh_passenger" depart="63.27" departLane="best" departSpeed="max" from="-197203422" to="-199131297"/>
    <trip id="veh78" type="veh_passenger" depart="64.10" departLane="best" departSpeed="max" from="-390526209" to="199341664#1"/>
    <trip id="veh79" type="veh_passenger" depart="64.92" departLane="best" departSpeed="max" from="-252988662" to="-197203426#0"/>
    <trip id="veh80" type="veh_passenger" depart="65.74" departLane="best" departSpeed="max" from="-193309355#2" to="200093445#2"/>
    <trip id="veh81" type="veh_passenger" depart="66.56" departLane="best" departSpeed="max" from="-252988662" to="520701745"/>
    <trip id="veh83" type="veh_passenger" depart="68.20" departLane="best" departSpeed="max" from="-301511504" to="240164150"/>
    <trip id="veh84" type="veh_passenger" depart="69.03" departLane="best" departSpeed="max" from="-240164168#1" to="-193065698"/>
    <trip id="veh85" type="veh_passenger" depart="69.85" departLane="best" departSpeed="max" from="504033184" to="199131299#1"/>
    <trip id="veh86" type="veh_passenger" depart="70.67" departLane="best" departSpeed="max" from="191704965" to="363199285"/>
    <trip id="veh87" type="veh_passenger" depart="71.49" departLane="best" departSpeed="max" from="344332004" to="-194356983"/>
    <trip id="veh89" type="veh_passenger" depart="73.14" departLane="best" departSpeed="max" from="-961560662#3" to="193065643#5"/>
    <trip id="veh90" type="veh_passenger" depart="73.96" departLane="best" departSpeed="max" from="231666010" to="240164168#1"/>
    <trip id="veh91" type="veh_passenger" depart="74.78" departLane="best" from="910969927" to="-193032306"/>
    <trip id="veh92" type="veh_passenger" depart="75.60" departLane="best" departSpeed="max" from="-543417461" to="-372502415#5"/>
    <trip id="veh94" type="veh_passenger" depart="77.24" departLane="best" departSpeed="max" from="-205672770#1" to="193030359#4"/>
    <trip id="veh95" type="veh_passenger" depart="78.07" departLane="best" departSpeed="max" from="-954079475" to="-259692596#0"/>
    <trip id="veh96" type="veh_passenger" depart="78.89" departLane="best" departSpeed="max" from="-303105502#1" to="543417461"/>
    <trip id="veh97" type="veh_passenger" depart="79.71" departLane="best" departSpeed="max" from="1161723918" to="457961116"/>
    <trip id="veh98" type="veh_passenger" depart="80.53" departLane="best" departSpeed="max" from="193032308#0" to="-191712634#0"/>
    <trip id="veh99" type="veh_passenger" depart="81.35" departLane="best" from="988835218" to="390526209"/>
    <trip id="veh100" type="veh_passenger" depart="82.17" departLane="best" from="699104403#0" to="546844929"/>
    <trip id="veh101" type="veh_passenger" depart="83.00" departLane="best" departSpeed="max" from="383441686" to="-193302931"/>
    <trip id="veh102" type="veh_passenger" depart="83.82" departLane="best" departSpeed="max" from="191712634#0" to="-197203410#0"/>
    <trip id="veh103" type="veh_passenger" depart="84.64" departLane="best" departSpeed="max" from="-543417461" to="-192657978"/>
    <trip id="veh104" type="veh_passenger" depart="85.46" departLane="best" departSpeed="max" from="-470876994#1" to="978436287"/>
    <trip id="veh105" type="veh_passenger" depart="86.28" departLane="best" departSpeed="max" from="-344153341" to="363199285"/>
    <trip id="veh106" type="veh_passenger" depart="87.10" departLane="best" departSpeed="max" from="184515332#0" to="-987202795"/>
    <trip id="veh107" type="veh_passenger" depart="87.93" departLane="best" departSpeed="max" from="193032310" to="303105502#1"/>
    <trip id="veh108" type="veh_passenger" depart="88.75" departLane="best" departSpeed="max" from="-199341698" to="-303109575#0"/>
    <trip id="veh109" type="veh_passenger" depart="89.57" departLane="best" from="663553265" to="199131303#2"/>
    <trip id="veh110" type="veh_passenger" depart="90.39" departLane="best" departSpeed="max" from="193032305" to="344153341"/>
    <trip id="veh111" type="veh_passenger" depart="91.21" departLane="best" departSpeed="max" from="-193134675#2" to="199131306#2"/>
    <trip id="veh112" type="veh_passenger" depart="92.04" departLane="best" departSpeed="max" from="193026212#0" to="392145536"/>
    <trip id="veh113" type="veh_passenger" depart="92.86" departLane="best" departSpeed="max" from="-199880987" to="909086971"/>
    <trip id="veh114" type="veh_passenger" depart="93.68" departLane="best" departSpeed="max" from="-193448359" to="-194350652#0"/>
    <trip id="veh116" type="veh_passenger" depart="95.32" departLane="best" departSpeed="max" from="-260136265#3" to="-193032315#0"/>
    <trip id="veh117" type="veh_passenger" depart="96.14" departLane="best" from="396388577#1" to="-199341711#6"/>
    <trip id="veh119" type="veh_passenger" depart="97.79" departLane="best" departSpeed="max" from="-954079475" to="199131305#2"/>
    <trip id="veh120" type="veh_passenger" depart="98.61" departLane="best" departSpeed="max" from="193032268" to="556516580"/>
    <trip id="veh121" type="veh_passenger" depart="99.43" departLane="best" departSpeed="max" from="-239625515" to="303105502#1"/>
    <trip id="veh122" type="veh_passenger" depart="100.25" departLane="best" departSpeed="max" from="-301511504" to="-525453702#0"/>
    <trip id="veh123" type="veh_passenger" depart="101.07" departLane="best" departSpeed="max" from="199131306#0" to="-303109575#0"/>
    <trip id="veh124" type="veh_passenger" depart="101.90" departLane="best" departSpeed="max" from="-377031473#1" to="344330261#2"/>
    <trip id="veh125" type="veh_passenger" depart="102.72" departLane="best" departSpeed="max" from="-193309355#2" to="193032317#6"/>
    <trip id="veh126" type="veh_passenger" depart="103.54" departLane="best" departSpeed="max" from="987202795" to="982234628"/>
    <trip id="veh127" type="veh_passenger" depart="104.36" departLane="best" departSpeed="max" from="-193309355#2" to="-197203410#0"/>
    <trip id="veh128" type="veh_passenger" depart="105.18" departLane="best" departSpeed="max" from="-344153341" to="556516580"/>
    <trip id="veh129" type="veh_passenger" depart="106.00" departLane="best" departSpeed="max" from="395087230" to="474643000#1"/>
    <trip id="veh130" type="veh_passenger" depart="106.83" departLane="best" departSpeed="max" from="-457961116" to="-193138288#0"/>
    <trip id="veh131" type="veh_passenger" depart="107.65" departLane="best" departSpeed="max" from="363200414" to="260136265#3"/>
    <trip id="veh132" type="veh_passenger" depart="108.47" departLane="best" departSpeed="max" from="193302931" to="978455013#1"/>
    <trip id="veh133" type="veh_passenger" depart="109.29" departLane="best" departSpeed="max" from="197203405#0" to="-1161723917#0"/>
    <trip id="veh134" type="veh_passenger" depart="110.11" departLane="best" departSpeed="max" from="346679281" to="-303109575#0"/>
    <trip id="veh135" type="veh_passenger" depart="110.94" departLane="best" departSpeed="max" from="197203426#0" to="556516580"/>
    <trip id="veh136" type="veh_passenger" depart="111.76" departLane="best" departSpeed="max" from="-199131303#2" to="-193032311"/>
    <trip id="veh137" type="veh_passenger" depart="112.58" departLane="best" departSpeed="max" from="-197203403#1" to="197203407#2"/>
    <trip id="veh138" type="veh_passenger" depart="113.40" departLane="best" departSpeed="max" from="-344330261#2" to="199880987"/>
    <trip id="veh139" type="veh_passenger" depart="114.22" departLane="best" from="200093427#0" to="-197203396#2"/>
    <trip id="veh140" type="veh_passenger" depart="115.04" departLane="best" departSpeed="max" from="194350652#0" to="-205672769#1"/>
    <trip id="veh141" type="veh_passenger" depart="115.87" departLane="best" departSpeed="max" from="191712634#0" to="520701745"/>
    <trip id="veh142" type="veh_passenger" depart="116.69" departLane="best" departSpeed="max" from="383441686" to="-193032297"/>
    <trip id="veh143" type="veh_passenger" depart="117.51" departLane="best" departSpeed="max" from="-961560662#3" to="-259692596#0"/>
    <trip id="veh144" type="veh_passenger" depart="118.33" departLane="best" departSpeed="max" from="-1151656734" to="358980594#0"/>
    <trip id="veh145" type="veh_passenger" depart="119.15" departLane="best" departSpeed="max" from="194356985#0" to="-200091723#0"/>
    <trip id="veh146" type="veh_passenger" depart="119.97" departLane="best" departSpeed="max" from="256890153" to="197203407#2"/>
    <trip id="veh148" type="veh_passenger" depart="121.62" departLane="best" departSpeed="max" from="-193446576" to="49931951#0"/>
    <trip id="veh149" type="veh_passenger" depart="122.44" departLane="best" departSpeed="max" from="459839151" to="197203386#1"/>
    <trip id="veh150" type="veh_passenger" depart="123.26" departLane="best" departSpeed="max" from="363200414" to="199131305#2"/>
    <trip id="veh151" type="veh_passenger" depart="124.08" departLane="best" departSpeed="max" from="-199341680#4" to="-193065671"/>
    <trip id="veh152" type="veh_passenger" depart="124.91" departLane="best" departSpeed="max" from="-372500448" to="512390459"/>
    <trip id="veh153" type="veh_passenger" depart="125.73" departLane="best" departSpeed="max" from="457347019#0" to="-197203405#0"/>
    <trip id="veh154" type="veh_passenger" depart="126.55" departLane="best" departSpeed="max" from="-303105502#1" to="-193032308#0"/>
    <trip id="veh155" type="veh_passenger" depart="127.37" departLane="best" departSpeed="max" from="303553306" to="503895300"/>
    <trip id="veh156" type="veh_passenger" depart="128.19" departLane="best" departSpeed="max" from="-589683551#1" to="200091721#1"/>
    <trip id="veh157" type="veh_passenger" depart="129.01" departLane="best" departSpeed="max" from="-199341698" to="548030803#1"/>
    <trip id="veh159" type="veh_passenger" depart="130.66" departLane="best" departSpeed="max" from="346678754" to="49793803#2"/>
    <trip id="veh160" type="veh_passenger" depart="131.48" departLane="best" from="-193032282#2" to="343333437"/>
    <trip id="veh162" type="veh_passenger" depart="133.12" departLane="best" from="301521094#4" to="457961116"/>
    <trip id="veh163" type="veh_passenger" depart="133.94" departLane="best" departSpeed="max" from="346678754" to="-256533931"/>
    <trip id="veh164" type="veh_passenger" depart="134.77" departLane="best" departSpeed="max" from="392145534#0" to="455285855"/>
    <trip id="veh165" type="veh_passenger" depart="135.59" departLane="best" departSpeed="max" from="-240733801" to="384717994#1"/>
    <trip id="veh166" type="veh_passenger" depart="136.41" departLane="best" departSpeed="max" from="184515615" to="-305176889#1"/>
    <trip id="veh167" type="veh_passenger" depart="137.23" departLane="best" departSpeed="max" from="330750483#0" to="-199131306#0"/>
    <trip id="veh168" type="veh_passenger" depart="138.05" departLane="best" departSpeed="max" from="-193030359#4" to="-194356985#0"/>
    <trip id="veh169" type="veh_passenger" depart="138.87" departLane="best" departSpeed="max" from="-386046550" to="457961116"/>
    <trip id="veh170" type="veh_passenger" depart="139.70" departLane="best" departSpeed="max" from="657329569#0" to="-259692596#0"/>
    <trip id="veh171" type="veh_passenger" depart="140.52" departLane="best" departSpeed="max" from="196746076" to="-589663390"/>
    <trip id="veh172" type="veh_passenger" depart="141.34" departLane="best" departSpeed="max" from="777906091" to="193809812"/>
    <trip id="veh173" type="veh_passenger" depart="142.16" departLane="best" departSpeed="max" from="520701746" to="-193032311"/>
    <trip id="veh174" type="veh_passenger" depart="142.98" departLane="best" departSpeed="max" from="699104406#0" to="-194338158#0"/>
    <trip id="veh175" type="veh_passenger" depart="143.81" departLane="best" departSpeed="max" from="548155991" to="239631040"/>
    <trip id="veh176" type="veh_passenger" depart="144.63" departLane="best" departSpeed="max" from="-197203403#1" to="184515323#1"/>
    <trip id="veh177" type="veh_passenger" depart="145.45" departLane="best" departSpeed="max" from="231666010" to="-330750483#1"/>
    <trip id="veh178" type="veh_passenger" depart="146.27" departLane="best" departSpeed="max" from="193138288#0" to="193309355#2"/>
    <trip id="veh179" type="veh_passenger" depart="147.09" departLane="best" departSpeed="max" from="-50783636" to="199131303#2"/>
    <trip id="veh180" type="veh_passenger" depart="147.91" departLane="best" departSpeed="max" from="-327086081" to="301511504"/>
    <trip id="veh181" type="veh_passenger" depart="148.74" departLane="best" departSpeed="max" from="-1151656734" to="543417461"/>
    <trip id="veh182" type="veh_passenger" depart="149.56" departLane="best" departSpeed="max" from="193032305" to="305135197#2"/>
    <trip id="veh183" type="veh_passenger" depart="150.38" departLane="best" departSpeed="max" from="256890153" to="240164168#1"/>
    <trip id="veh184" type="veh_passenger" depart="151.20" departLane="best" departSpeed="max" from="-457423525" to="-193030331#0"/>
    <trip id="veh185" type="veh_passenger" depart="152.02" departLane="best" departSpeed="max" from="197203426#0" to="-360924351#0"/>
    <trip id="veh186" type="veh_passenger" depart="152.84" departLane="best" departSpeed="max" from="-372642573" to="392145530"/>
    <trip id="veh187" type="veh_passenger" depart="153.67" departLane="best" from="205672775" to="-303553306"/>
    <trip id="veh188" type="veh_passenger" depart="154.49" departLane="best" departSpeed="max" from="-372500448" to="-659413625"/>
    <trip id="veh189" type="veh_passenger" depart="155.31" departLane="best" departSpeed="max" from="-543417461" to="-301511503"/>
    <trip id="veh190" type="veh_passenger" depart="156.13" departLane="best" departSpeed="max" from="-199131299#1" to="-986919681#1"/>
    <trip id="veh191" type="veh_passenger" depart="156.95" departLane="best" departSpeed="max" from="520701746" to="240164170#2"/>
    <trip id="veh192" type="veh_passenger" depart="157.77" departLane="best" departSpeed="max" from="459839151" to="200091720#4"/>
    <trip id="veh193" type="veh_passenger" depart="158.60" departLane="best" departSpeed="max" from="-367452604#1" to="197203403#1"/>
    <trip id="veh194" type="veh_passenger" depart="159.42" departLane="best" departSpeed="max" from="-1151656734" to="-286663226#0"/>
    <trip id="veh196" type="veh_passenger" depart="161.06" departLane="best" departSpeed="max" from="197203405#0" to="193032318#1"/>
    <trip id="veh197" type="veh_passenger" depart="161.88" departLane="best" departSpeed="max" from="1161723918" to="-197203410#0"/>
    <trip id="veh198" type="veh_passenger" depart="162.71" departLane="best" departSpeed="max" from="191704965" to="512390459"/>
    <trip id="veh199" type="veh_passenger" depart="163.53" departLane="best" departSpeed="max" from="330750483#0" to="-193309355#0"/>
    <trip id="veh200" type="veh_passenger" depart="164.35" departLane="best" departSpeed="max" from="-193548434#3" to="193446576"/>
    <trip id="veh201" type="veh_passenger" depart="165.17" departLane="best" departSpeed="max" from="194350652#0" to="-361950929#0"/>
    <trip id="veh202" type="veh_passenger" depart="165.99" departLane="best" departSpeed="max" from="346679281" to="344330261#2"/>
    <trip id="veh203" type="veh_passenger" depart="166.81" departLane="best" departSpeed="max" from="199131306#0" to="-199131297"/>
    <trip id="veh205" type="veh_passenger" depart="168.46" departLane="best" departSpeed="max" from="-301511505" to="193065652"/>
    <trip id="veh206" type="veh_passenger" depart="169.28" departLane="best" departSpeed="max" from="383441686" to="-193030347#0"/>
    <trip id="veh207" type="veh_passenger" depart="170.10" departLane="best" departSpeed="max" from="-778402404" to="200093445#2"/>
    <trip id="veh208" type="veh_passenger" depart="170.92" departLane="best" departSpeed="max" from="-205672783" to="256890164"/>
    <trip id="veh209" type="veh_passenger" depart="171.74" departLane="best" departSpeed="max" from="192657978" to="-199341711#0"/>
    <trip id="veh210" type="veh_passenger" depart="172.57" departLane="best" departSpeed="max" from="197203405#0" to="-1161723917#0"/>
    <trip id="veh211" type="veh_passenger" depart="173.39" departLane="best" departSpeed="max" from="259433796" to="352050089"/>
    <trip id="veh212" type="veh_passenger" depart="174.21" departLane="best" departSpeed="max" from="-197203403#1" to="1076656333#0"/>
    <trip id="veh213" type="veh_passenger" depart="175.03" departLane="best" departSpeed="max" from="-200091723#5" to="778402406"/>
    <trip id="veh214" type="veh_passenger" depart="175.85" departLane="best" departSpeed="max" from="193030356" to="-191712634#0"/>
    <trip id="veh215" type="veh_passenger" depart="176.67" departLane="best" departSpeed="max" from="-303105502#1" to="392145530"/>
    <trip id="veh216" type="veh_passenger" depart="177.50" departLane="best" departSpeed="max" from="184515332#0" to="372642573"/>
    <trip id="veh217" type="veh_passenger" depart="178.32" departLane="best" departSpeed="max" from="199131297" to="978513418"/>
    <trip id="veh219" type="veh_passenger" depart="179.96" departLane="best" from="199360892#0" to="200018527#1"/>
    <trip id="veh220" type="veh_passenger" depart="180.78" departLane="best" from="200672753" to="193138280#2"/>
    <trip id="veh221" type="veh_passenger" depart="181.61" departLane="best" from="361474367#3" to="197203403#1"/>
    <trip id="veh222" type="veh_passenger" depart="182.43" departLane="best" departSpeed="max" from="457347019#0" to="343333449#7"/>
    <trip id="veh223" type="veh_passenger" depart="183.25" departLane="best" departSpeed="max" from="191704965" to="-200091723#0"/>
    <trip id="veh224" type="veh_passenger" depart="184.07" departLane="best" departSpeed="max" from="-303105502#1" to="200672746"/>
    <trip id="veh225" type="veh_passenger" depart="184.89" departLane="best" departSpeed="max" from="295166565" to="193448359"/>
    <trip id="veh226" type="veh_passenger" depart="185.71" departLane="best" departSpeed="max" from="194338158#0" to="-256533935#0"/>